%NprocShared=8
%Mem=25712MB
#T B3PW91/GenECP
   SCFCon=7 SCFCyc=250 GFInput GFOldPrint
   Opt=(MaxCyc=60)
   Integral=(Grid=UltraFine)
   Pop=Regular Pseudo=Read
   IOp(1/33=0,2/11=1,3/27=8,6/7=3)

TiO2 4a

0 1
 Ti                 0.00000000   -1.62259719    1.37470910
 Ti                -0.00000000    1.62259719    1.37470910
 Ti                -1.60915226    0.00000000   -0.91039129
 Ti                 1.60915226    0.00000000   -0.91039129
 O                  0.00000000    0.00000000    2.52562699
 O                  1.60963324    1.63180571    0.25674218
 O                 -1.60963324    1.63180571    0.25674218
 O                  1.60963324   -1.63180571    0.25674218
 O                 -1.60963324   -1.63180571    0.25674218
 O                  0.00000000    0.00000000   -2.10538804
 O                 -3.26173519    0.00000000   -2.00047782
 O                  3.26173519    0.00000000   -2.00047782

Ti 0
SDDAll
****
O 0
6-31G(d)
****

Ti
SDDAll





