%NprocShared=8
%Mem=25712MB
#T B3PW91/GenECP
   SCFCon=7 SCFCyc=250 GFInput GFOldPrint
   Opt=(MaxCyc=60,CalcFC) NoSym
   Integral=(Grid=UltraFine)
   Pop=Regular Pseudo=Read
   IOp(1/33=0,2/11=1,3/27=8,6/7=3)

TiO2 1-4

0 1
 Ti                 0.00124200    0.04970800   -0.00025900
 O                 -0.15336200    1.65374100    0.00024700
 O                  1.71879400   -0.58123400    0.00019700
 H                  2.06550800   -1.47825900    0.00038000
 O                 -1.52207700   -0.94280100    0.00015300
 H                 -2.43967900   -0.65296000    0.00054400
 O                 -0.29520895   -0.37515653    2.06577753
 H                  0.66479105   -0.37515653    2.06577753
 H                 -0.61566354    0.52977930    2.06577753

Ti 0
SDDAll
****
O H 0
6-31G(d,p)
****

Ti
SDDAll



                                                       
                                                       

