%NprocShared=8
%Mem=51488MB
#T B3PW91/GenECP
   SCFCon=7 SCFCyc=250 GFInput GFOldPrint
   Opt=(MaxCyc=60,CalcFC) NoSym
   Integral=(Grid=UltraFine)
   Pop=Regular Pseudo=Read
   IOp(1/33=0,2/11=1,3/27=8,6/7=3)

TiO2 1-5b

0 1
 Ti                -0.00000000    0.00000000    0.00000000
 O                  0.00000000    1.98000000    0.00000000
 H                 -0.90493583    2.30045459    0.00000000
 O                 -1.98000000   -0.00000000    0.00000000
 H                 -2.30045459   -0.90493583    0.00000000
 O                  0.00000000   -1.98000000    0.00000000
 H                  0.90493583   -2.30045459    0.00000000
 O                  1.98000000    0.00000000    0.00000000
 H                  2.30045459    0.90493583    0.00000000

Ti 0
SDDAll
****
O H 0
6-31G(d,p)
****

Ti
SDDAll






